Version 4
SHEET 1 4636 680
WIRE -112 -208 -112 -240
WIRE -272 -96 -368 -96
WIRE -112 -96 -112 -144
WIRE -112 -96 -192 -96
WIRE 48 -96 -32 -96
WIRE 128 -96 48 -96
WIRE 208 -96 208 -176
WIRE 208 -96 128 -96
WIRE -512 -48 -512 -80
WIRE -368 -48 -368 -96
WIRE -32 -48 -32 -96
WIRE 48 -48 48 -96
WIRE 128 -48 128 -96
WIRE 208 -48 208 -96
WIRE -32 64 -32 16
WIRE 48 64 48 16
WIRE 48 64 -32 64
WIRE 128 64 128 32
WIRE 128 64 48 64
WIRE -512 80 -512 32
WIRE -368 80 -368 32
WIRE 208 80 208 32
WIRE 288 80 208 80
WIRE 448 80 352 80
WIRE 128 112 128 64
WIRE 208 112 208 80
WIRE -112 160 -112 -96
WIRE 160 160 -112 160
WIRE -880 192 -960 192
WIRE -736 192 -800 192
WIRE -640 192 -736 192
WIRE -544 192 -640 192
WIRE -480 192 -544 192
WIRE -384 192 -416 192
WIRE -272 192 -304 192
WIRE -208 192 -272 192
WIRE -64 192 -112 192
WIRE -16 192 -64 192
WIRE 80 192 48 192
WIRE 160 192 80 192
WIRE 320 208 208 208
WIRE -960 240 -960 192
WIRE -736 240 -736 192
WIRE -640 240 -640 192
WIRE -544 240 -544 192
WIRE -272 240 -272 192
WIRE -64 240 -64 192
WIRE 80 240 80 192
WIRE 208 240 208 208
WIRE 320 240 320 208
WIRE 448 240 448 80
WIRE -176 256 -176 240
WIRE -960 352 -960 320
WIRE -736 352 -736 304
WIRE -736 352 -960 352
WIRE -640 352 -640 304
WIRE -640 352 -736 352
WIRE -544 352 -544 304
WIRE -544 352 -640 352
WIRE -272 352 -272 320
WIRE -272 352 -544 352
WIRE -176 352 -176 336
WIRE -176 352 -272 352
WIRE 80 352 80 320
WIRE 80 352 -176 352
WIRE 208 352 208 320
WIRE 208 352 80 352
WIRE 320 352 320 304
WIRE 320 352 208 352
WIRE 448 352 448 320
WIRE 448 352 320 352
WIRE -960 400 -960 352
WIRE -64 400 -64 320
FLAG -960 400 0
FLAG -512 -80 Vdd
FLAG -512 80 0
FLAG 208 -176 Vdd
FLAG -368 80 0
FLAG -112 -240 0
FLAG 128 112 0
FLAG -64 400 Vdd
FLAG 448 80 output
SYMBOL xdgnmos 160 112 R0
SYMATTR InstName U1
SYMATTR SpiceModel BF981
SYMBOL res 64 224 R0
SYMATTR InstName R6
SYMATTR Value 10k
SYMBOL res 192 224 R0
SYMATTR InstName R7
SYMATTR Value 81
SYMBOL voltage -960 224 R0
WINDOW 123 -267 64 Left 2
WINDOW 39 -267 95 Left 2
WINDOW 3 -263 -1 Left 2
WINDOW 0 -263 34 Left 2
SYMATTR Value2 AC 1
SYMATTR SpiceLine 200
SYMATTR Value SINE(0 0.1 1000k)
SYMATTR InstName Vsig
SYMBOL voltage -512 -64 R0
WINDOW 123 0 0 Left 0
WINDOW 39 0 0 Left 0
SYMATTR InstName V2
SYMATTR Value 9
SYMBOL res 432 224 R0
SYMATTR InstName LOAD
SYMATTR Value 20k
SYMBOL cap 336 304 R180
WINDOW 0 -26 53 Left 2
WINDOW 3 -54 5 Left 2
SYMATTR InstName C4
SYMATTR Value 100n
SYMBOL res -176 -112 R90
WINDOW 0 0 56 VBottom 2
WINDOW 3 32 56 VTop 2
SYMATTR InstName R8
SYMATTR Value 100k
SYMBOL voltage -368 -64 R0
WINDOW 123 0 0 Left 0
WINDOW 39 0 0 Left 0
SYMATTR InstName V_ctl
SYMATTR Value 0.1
SYMBOL cap -96 -144 R180
WINDOW 0 24 56 Left 2
WINDOW 3 24 8 Left 2
SYMATTR InstName C6
SYMATTR Value 100n
SYMBOL cap 288 96 R270
WINDOW 0 32 32 VTop 2
WINDOW 3 0 32 VBottom 2
SYMATTR InstName C5
SYMATTR Value 100n
SYMBOL cap -16 208 R270
WINDOW 0 -19 5 VTop 2
WINDOW 3 10 64 VBottom 2
SYMATTR InstName C3
SYMATTR Value 100n
SYMBOL ind 192 -64 R0
SYMATTR InstName L1
SYMATTR Value 5m
SYMATTR SpiceLine Rser=10
SYMBOL res 144 48 R180
WINDOW 0 -27 97 Left 2
WINDOW 3 -5 169 Left 2
SYMATTR InstName R9
SYMATTR Value 910
SYMBOL polcap 32 -48 R0
WINDOW 3 -7 -74 Left 2
SYMATTR Value 47µ
SYMATTR InstName C8
SYMBOL cap -16 16 R180
WINDOW 0 -27 54 Left 2
WINDOW 3 -7 135 Left 2
SYMATTR InstName C7
SYMATTR Value 100n
SYMBOL njf -112 240 M270
WINDOW 0 36 58 VLeft 2
WINDOW 3 35 3 Right 2
SYMATTR InstName J1
SYMATTR Value BF256A
SYMBOL res -288 176 R90
WINDOW 0 0 56 VBottom 2
WINDOW 3 32 56 VTop 2
SYMATTR InstName R2
SYMATTR Value 810
SYMBOL cap -416 176 R90
WINDOW 0 0 32 VBottom 2
WINDOW 3 32 32 VTop 2
SYMATTR InstName C2
SYMATTR Value 100n
SYMBOL res -80 224 R0
SYMATTR InstName R5
SYMATTR Value 4.7k
SYMBOL res -288 224 R0
SYMATTR InstName R3
SYMATTR Value 2.2k
SYMBOL res -192 240 R0
WINDOW 0 27 81 Left 2
WINDOW 3 12 141 Left 2
SYMATTR InstName R4
SYMATTR Value 1Meg
SYMBOL schottky -656 240 R0
WINDOW 0 22 0 Left 2
WINDOW 3 -30 133 Left 2
SYMATTR InstName D2
SYMATTR Value 1N5711
SYMATTR Description Diode
SYMATTR Type diode
SYMBOL schottky -720 304 R180
WINDOW 0 24 64 Left 2
WINDOW 3 -19 -69 Left 2
SYMATTR InstName D1
SYMATTR Value 1N5711
SYMATTR Description Diode
SYMATTR Type diode
SYMBOL res -784 176 R90
WINDOW 0 0 56 VBottom 2
WINDOW 3 32 56 VTop 2
SYMATTR InstName R1
SYMATTR Value 100
SYMBOL cap -528 304 R180
WINDOW 0 -30 59 Left 2
WINDOW 3 -34 12 Left 2
SYMATTR InstName C1
SYMATTR Value 1p
TEXT 184 416 Left 2 !;.tran 0 1.01m 1m
TEXT 184 456 Left 2 !;.step param voltage 0.3 1 0.1
TEXT 640 -184 Left 2 ;[ Q-point of BF981 with R_D ]\n \nfrom catalog:\nV_p = -1.1V\nI_Dss = 12mA\nI_D0 = 5mA (this is the middle of V_G1-S and I_D range)\n \nselected / calculated values:\nVdd = 9V\nV_G1 = 0V\nV_D = Vdd / 2 = 4.5V\n \nI_S0 ~= I_D0 = 5mA\nR_D = V_D / I_D0 = 900ohm --> 910ohm\n \nV_GS-1_0 = U_p * (1 - sqrt(I_D0 / I_Dss)) = -0.39V\n(you can see it at the intersection of I_D vs V_GS-1 characteristic)\n \nV_G1 - V_G1-S - V_S = 0 --> V_S = 0.39V\nR_S = V_S / I_S = 78ohm --> 81ohm
TEXT 1504 -184 Left 2 ;[ Analysis with active Z_D ]\n \nL1 = 5mH\nf_in = 1MHz\n \n \nGain with LOAD = 20k:\nA (V_ctl = 0.1) = 13.6dB\nA (V_ctl = 0.5) = 21.7dB\nA (V_ctl = 1.0) = 33.4dB\nA (V_ctl = 2.0) = 37.5dB\n \nBandwidth:\n \n[ A = 37.5dB ]\ndf = 6.89MHz\nfa = 519kHz\nf0 = 2.034MHz\nfb = 7.40MHz\n \n[ A = 6.76dB ]\ndf = 9.41MHz\nfa = 348.32kHz\nf0 = 1.97MHz\nfb = 9.418MHz
TEXT -776 576 Left 2 !.MODEL BF256A NJF(VTO=-2.1333 BETA=1.06491m BETATCE=-0.5 LAMBDA=1.68673E-2 RD=1.41231E1 RS=1.41231E1 CGS=2.10000p CGD=2.30000p PB=7.73895E-1 IS=3.50865E-16 XTI=3 AF=1 FC=0.5 N=1 NR=2 MFG=PHILIPS)
TEXT 184 496 Left 2 !.ac dec 101 1k 500Meg
TEXT -776 632 Left 2 !.MODEL 1N5711 D  ( IS=315n RS=2.80 BV=70.0 IBV=10.0u CJO=2.00p  M=0.333 N=2.03 TT=1.44n )
